stepan 01
  Canvas  00000000002D

 34 36  0  0  1  0  0  0  0  0999 V2000
    1.0242    4.5500    0.0000 Cl  0  0  0
    1.0252    3.2500    0.0000 C   0  0  0
    2.1515    2.6008    0.0000 C   0  0  0
    2.1526    1.3008    0.0000 C   0  0  0
    1.0273    0.6500    0.0000 C   0  0  0
   -0.0991    1.2990    0.0000 C   0  0  0
   -0.1001    2.5990    0.0000 C   0  0  0
    1.0283   -0.6500    0.0000 S   0  0  0
   -0.2717   -0.6510    0.0000 O   0  0  0
    2.3283   -0.6490    0.0000 O   0  0  0
    1.0294   -1.9500    0.0000 N   0  0  0
    2.1557   -2.5992    0.0000 C   0  0  1
    2.1567   -3.8993    0.0000 C   0  0  0
    3.2831   -4.5482    0.0000 N   0  0  0
    1.0314   -4.5500    0.0000 O   0  0  0
    3.2810   -1.9482    0.0000 C   0  0  0
    4.4073   -2.5974    0.0000 C   0  0  0
    5.5326   -1.9461    0.0000 C   0  0  0
    4.8818   -0.8208    0.0000 F   0  0  0
    6.1818   -0.8198    0.0000 F   0  0  0
    6.6589   -2.5953    0.0000 F   0  0  0
   -0.0959   -2.6011    0.0000 C   0  0  0
   -1.2223   -1.9518    0.0000 C   0  0  0
   -2.3476   -2.6029    0.0000 C   0  0  0
   -2.3465   -3.9029    0.0000 F   0  0  0
   -3.4739   -1.9537    0.0000 C   0  0  0
   -3.4749   -0.6536    0.0000 C   0  0  0
   -2.3496   -0.0029    0.0000 C   0  0  0
   -1.2233   -0.6518    0.0000 C   0  0  0
   -4.6013   -0.0044    0.0000 C   0  0  0
   -5.7882   -0.5343    0.0000 N   0  0  0
   -6.6589    0.4311    0.0000 C   0  0  0
   -6.0100    1.5574    0.0000 O   0  0  0
   -4.7383    1.2883    0.0000 N   0  0  0
  1  2  1  0
  2  7  1  0
  2  3  1  0
  3  4  1  0
  4  5  1  0
  5  6  1  0
  6  7  1  0
  5  8  1  0
  8  9  1  0
  8 10  1  0
  8 11  1  0
 11 12  1  0
 12 13  1  6
 13 14  1  0
 13 15  1  0
 12 16  1  0
 16 17  1  0
 17 18  1  0
 18 19  1  0
 18 20  1  0
 18 21  1  0
 11 22  1  0
 22 23  1  0
 23 29  1  0
 23 24  1  0
 24 25  1  0
 24 26  1  0
 26 27  1  0
 27 28  1  0
 28 29  1  0
 27 30  1  0
 30 34  1  0
 30 31  1  0
 31 32  1  0
 32 33  1  0
 33 34  1  0
M  END
>  <RRCK LogPapp (Log 10-6 cm/s)>
-5.258

>  <LogD>
4.7

$$$$
stepan 03
  Canvas  00000000002D

 32 35  0  0  1  0  0  0  0  0999 V2000
   -3.9914   -2.3587    0.0000 Cl  0  0  0
   -2.8511   -1.6946    0.0000 C   0  0  0
   -1.7053   -2.3500    0.0000 C   0  0  0
   -0.5650   -1.6859    0.0000 C   0  0  0
   -0.5700   -0.3661    0.0000 C   0  0  0
   -1.7158    0.2893    0.0000 C   0  0  0
   -2.8558   -0.3748    0.0000 C   0  0  0
    0.5703    0.2980    0.0000 S   0  0  0
    1.2344   -0.8423    0.0000 O   0  0  0
   -0.0941    1.4385    0.0000 O   0  0  0
    1.7108    0.9624    0.0000 N   0  0  0
    1.7055    2.2821    0.0000 C   0  0  1
    2.8461    2.9465    0.0000 C   0  0  0
    3.9913    2.2911    0.0000 N   0  0  0
    2.8408    4.2663    0.0000 O   0  0  0
    0.5600    2.9378    0.0000 C   0  0  0
    0.5550    4.2573    0.0000 C   0  0  0
   -0.5906    4.9129    0.0000 C   0  0  0
   -1.2460    3.7677    0.0000 F   0  0  0
   -1.9101    4.9079    0.0000 F   0  0  0
   -0.5953    6.2327    0.0000 F   0  0  0
    2.8561    0.3070    0.0000 C   0  0  0
    2.8611   -1.0130    0.0000 C   0  0  0
    3.7979   -1.9427    0.0000 C   0  0  0
    2.8682   -2.8795    0.0000 C   0  0  0
    1.9315   -1.9495    0.0000 C   0  0  0
    3.1446   -1.9451    0.0000 C   0  0  0
    2.8732   -4.1992    0.0000 C   0  0  2
    1.8085   -4.9789    0.0000 N   0  0  0
    2.2213   -6.2327    0.0000 C   0  0  0
    3.5408   -6.2277    0.0000 O   0  0  0
    3.9438   -4.9707    0.0000 N   0  0  0
  1  2  1  0
  2  7  1  0
  2  3  1  0
  3  4  1  0
  4  5  1  0
  5  6  1  0
  6  7  1  0
  5  8  1  0
  8  9  1  0
  8 10  1  0
  8 11  1  0
 11 12  1  0
 12 13  1  6
 13 14  1  0
 13 15  1  0
 12 16  1  0
 16 17  1  0
 17 18  1  0
 18 19  1  0
 18 20  1  0
 18 21  1  0
 11 22  1  0
 22 23  1  0
 23 26  1  0
 23 27  1  0
 23 24  1  0
 24 25  1  0
 25 26  1  0
 25 27  1  0
 28 25  1  1
 28 32  1  0
 28 29  1  0
 29 30  1  0
 30 31  1  0
 31 32  1  0
M  END
>  <RRCK LogPapp (Log 10-6 cm/s)>
-4.714

>  <LogD>
3.8